CRYSTAL
PRIMVEC 1
      2.4955997146       0.0000000000       0.0000000000
     -1.2477998573       2.1612527505       0.0000000000
      0.0000000000       0.0000000000      17.0000000000
PRIMCOORD 1
2 1
5       1.2477999821       0.7204175115       0.0000000000
7      -1.2477999821      -0.7204175115       0.0000000000
