CRYSTAL
PRIMVEC 1
      4.2765437739       0.0000000000       0.0000000000
     -2.1382718869       3.7035955486       0.0000000000
      0.0000000000       0.0000000000      23.4828509546
PRIMCOORD 1
3 1
53       0.0000000001       2.4690636991      13.4955425597
48       0.0000000000       0.0000000000      11.7414254773
53       2.1382718870       1.2345318496       9.9873083949
