CRYSTAL
PRIMVEC 1
      3.4045179942       0.0000000000       0.0000000000
     -1.7022589971       2.9483990707       0.0000000000
      0.0000000000       0.0000000000      22.4605043055
PRIMCOORD 1
3 1
17       1.7022589971       0.9827996902      12.4376876980
26       0.0000000000       0.0000000000      11.2302521528
17       0.0000000000       1.9655993804      10.0228166075
