CRYSTAL
PRIMVEC 1
      3.1859649403       0.0000000000       0.0000000000
     -1.5929824701       2.7591265739       0.0000000000
      0.0000000000       0.0000000000      23.1547018857
PRIMCOORD 1
3 1
42       0.0000000000       1.8394177159      11.5773509428
16       1.5929824701       0.9197088580      10.0140525649
16       1.5929824701       0.9197088580      13.1406493208