CRYSTAL
PRIMVEC 1
      3.3157939819       0.0000000000       0.0000000000
     -1.6578969909       2.8715618220       0.0000000000
      0.0000000000       0.0000000000      23.3586496233
PRIMCOORD 1
3 1
42      -0.0000000000       1.9143745481      11.6796648729
34       1.6578969909       2.8715618220      13.3509010285
34       1.6578969909       2.8715618220      10.0084265530
