CRYSTAL
PRIMVEC 1
      4.1039108386       0.0000000000       0.0000000000
     -2.0519554194       3.5540910411       0.0000000000
      0.0000000000       0.0000000000      21.5486586805
PRIMCOORD 1
2 1
51       2.0519554192       1.1846970136       9.9502214364
51       2.0519554191       3.5540910410      11.5984372441
