CRYSTAL
PRIMVEC 1
     -1.9218272406      -3.3287024240       0.0000000000
      3.8436544811      -0.0000000000       0.0000000000
      0.0000000000       0.0000000000      20.0000000000
PRIMCOORD 1
2 1
51       1.9218272406      -1.1095674746       0.7673888066
33       1.9218272406      -3.3287024240      -0.7673888065
