CRYSTAL
PRIMVEC 1
      3.6735242703       0.0000000000       0.0000000000
     -1.8367621351       3.1813653395       0.0000000000
      0.0000000000       0.0000000000      22.9654742181
PRIMCOORD 1
3 1
16      -0.0000000000       2.1209102263       9.9820332600
50       0.0000000000       0.0000000000      11.4827371090
16       1.8367621351       1.0604551132      12.9834409581
