CRYSTAL
PRIMVEC 1
      3.1871850857       0.0000000000       0.0000000000
     -1.5935925429       2.7601832509       0.0000000000
      0.0000000000       0.0000000000      23.1729552467
PRIMCOORD 1
3 1
74       1.5935925429       0.9200610836      11.5864776233
16       0.0000000000       1.8401221672      13.1587153443
16       0.0000000000       1.8401221672      10.0142399024
