CRYSTAL
PRIMVEC 1
      3.4073495193       0.0000000000       0.0000000000
     -1.7036747595       2.9508512432       0.0000000000
      0.0000000000       0.0000000000      23.4733806710
PRIMCOORD 1
3 1
17       1.7036747598       0.9836170810      10.0213589611
17       1.7036747598       0.9836170810      13.4518319229
40       0.0000000001       1.9672341622      11.7365406129
